<?xml version="1.0" encoding="UTF-8"?>

<!-- generated on Tue Aug 29 12:21:07 2017 by SUMO duarouter Version 0.21.0
<?xml version="1.0" encoding="UTF-8"?>

<configuration xmlns:xsi="http://www.w3.org/2001/XMLSchema-instance" xsi:noNamespaceSchemaLocation="http://sumo-sim.org/xsd/duarouterConfiguration.xsd">

    <input>
        <net-file value="erlangen.net.xml"/>
        <additional-files value="type.add.xml"/>
        <trip-files value="trips.trips.xml"/>
    </input>

    <output>
        <output-file value="erlangen.rou.xml"/>
    </output>

    <processing>
        <ignore-errors value="true"/>
    </processing>

    <time>
        <begin value="0"/>
        <end value="1875.0"/>
    </time>

    <report>
        <no-step-log value="true"/>
    </report>

</configuration>
-->

<routes xmlns:xsi="http://www.w3.org/2001/XMLSchema-instance" xsi:noNamespaceSchemaLocation="http://sumo-sim.org/xsd/routes_file.xsd">
    <vType id="hSlowCar" length="5.00" minGap="2.50" maxSpeed="25.00" probability="0.05" color="blue">
        <carFollowing-Krauss accel="2.60" decel="4.50" sigma="0.50"/>
    </vType>
    <vehicle id="0" type="hSlowCar" depart="0.00">
        <route edges="238770987#1 -238770987#1 -238770987#0 33581450#0 -33581450#0"/>
    </vehicle>
    <vehicle id="1" type="hSlowCar" depart="0.00">
        <route edges="148570066#1 148570066#2 108043727#2 -157655114#4 -157655114#3 -157655114#2 -157655114#1 -157655114#0 -4324389#2 121700406 38771468#1 38771468#2 38771468#3 448960167#1 386959361#0 386959361#1 386959361#2 386959361#3 138233900 18502699#1 128942883 128942877#0 23892138#0 23892138#1 -18507830#1 18507830#1"/>
    </vehicle>
    <vehicle id="3" type="hSlowCar" depart="0.00">
        <route edges="159826765 209183483#5 209183483#6 128930536 174044127#0 174044127#1 143995130 207908670#3 207908670#4 7917436 174044129#0 174044129#1 174044129#2 174044129#3 122320050 -124327151#0 124327151#0"/>
    </vehicle>
    <vehicle id="4" type="hSlowCar" depart="0.00">
        <route edges="-250777278#4 250777278#4 4325634#4 130096030 130096034#0 130096034#1 130096034#2 130096034#3 130096034#4 -207728319#4 -207728319#3 -207728319#2 -207728319#1 -207728319#0 -385669582 -237920407#1 -237920407#0 -237920408#2 -237920408#1 -237920408#0 -207908670#5 -207908670#4 -207908670#3 -207908670#2 -207908670#1 -207908670#0 -209183483#6 -209183483#5 -209183483#4 -209183483#3 209183483#3"/>
    </vehicle>
    <vehicle id="5" type="hSlowCar" depart="0.00">
        <route edges="8080873#0 8080872#1 7653578#1 126471497#2 126471497#3 126471497#4 126471497#5 126471497#6 126471497#7 126471497#8 126471497#9 126471497#10 126471497#11 126471497#12 126471497#13 126471497#14 126471497#15 473802585#0 473802585#1 473802585#2 473802585#3 473802585#4 473802585#5 473802585#6 473802584 126471498#0 126471498#1 126471498#2 126471498#3 126471498#4 126471498#5 126471498#6 126471498#7 473799031 473799033 138233901 448960166 448960167#0 448960167#1 386959361#0 386959361#1 386959361#2 386959361#3 138233900 18502699#1 128942883 128942877#0 128942877#1 -30836983"/>
    </vehicle>
    <vehicle id="6" type="hSlowCar" depart="0.00">
        <route edges="-207728319#8 -207728319#7 -207728319#6 -207728319#5 -207728319#4 -207728319#3 -207728319#2 -207728319#1 -207728319#0 -385669582 -237920407#1 -237920407#0 -237920408#2 -237920408#1 -237920408#0 -207908670#5 -207908670#4 -207908670#3 -207908670#2 -207908670#1 128930533 -7917431#3 -7917431#2 -7917431#1 -7917431#0 126471497#6 126471497#7 126471497#8 126471497#9 126471497#10 126471497#11 126471497#12 126471497#13 126471497#14 126471497#15 -187017421#3 -187017421#2 -187017421#1 -187017421#0 187017421#0"/>
    </vehicle>
    <vehicle id="7" type="hSlowCar" depart="0.00">
        <route edges="-250777278#2 -250777278#1 -250777278#0 250777280#3 250777280#4 250777280#0 250777280#1 250777279 128932869#0 128932869#1 219406890#0 219406890#1 126471497#0 126471497#1 126471497#2 126471497#3 126471497#4 126471497#5 126471497#6 126471497#7 126471497#8 126471497#9 126471497#10 126471497#11 126471497#12 126471497#13 126471497#14 126471497#15 473802585#0 473802585#1 473802585#2 473802585#3 473802585#4 473802585#5 473802585#6 473802584 126471498#0 126471498#1 126471498#2 126471498#3 126471498#4 126471498#5 126471498#6 18535918#0 18535918#1 18535918#2 18535920#2 -18535920#2"/>
    </vehicle>
    <vehicle id="8" type="hSlowCar" depart="0.00">
        <route edges="249202938#0 249202938#1 249202938#2 7917431#2 7917431#3 128930534 -209183483#6 -209183483#5 -209183483#4 -209183483#3 -209183483#2 -209183483#1 108255160"/>
    </vehicle>
    <vehicle id="9" type="hSlowCar" depart="0.00">
        <route edges="29205082#1 29205082#2 29205082#3 29205082#4 128930529 -207908670#0 -209183483#6 -209183483#5 -209183483#4 -209183483#3 -209183483#2 -209183483#1 -209183483#0 -157655114#4 -157655114#3 7653582#0 7653582#1 7653585#1 108043727#0 108043727#1"/>
    </vehicle>
    <vehicle id="10" type="hSlowCar" depart="0.00">
        <route edges="128931504#2 174044131#3 174044131#4 -250777278#3 -250777278#2 -250777278#1 -250777278#0 250777280#3 250777280#4 250777280#0 250777280#1 250777279 128932869#0 128932869#1 219406890#0 219406890#1 126471497#0 126471497#1 126471497#2 126471497#3 126471497#4 126471497#5 126471497#6 126471497#7 126471497#8 126471497#9 126471497#10 126471497#11 126471497#12 126471497#13 126471497#14 126471497#15 473802585#0 473802585#1 473802585#2 473802585#3 473802585#4 473802585#5 473802585#6 473802584 126471498#0 126471498#1 126471498#2 126471498#3 126471498#4 126471498#5 126471498#6 18535918#0 18535918#1 18535918#2 18535920#2 18535920#3"/>
    </vehicle>
    <vehicle id="11" type="hSlowCar" depart="0.00">
        <route edges="18498615#1 147614652#0 18503941#0 18503941#1 448945443 -128942877#5 -128942877#4 -128942877#3 -18507827 -18507830#2"/>
    </vehicle>
    <vehicle id="12" type="hSlowCar" depart="0.00">
        <route edges="159830150 7917432 7917431#3 128930534 128930536 -29205082#4 -29205082#3 -29205082#2 -29205082#1 -29205082#0 -207728321 -119438059#2 -119438059#1 -119438059#0 -33581450#2 -33581450#1 -33581450#0 238770987#0 238770987#1 238770987#2 -147614652#1 18503941#0 18503941#1 448945443 -128942877#5 -128942877#4 -128942877#3 -128942877#2 128942877#2"/>
    </vehicle>
    <vehicle id="13" type="hSlowCar" depart="0.00">
        <route edges="150882376 33581450#1 33581450#2 119438059#0 119438059#1 119438059#2 207728321 207728318#0 207728318#1 207728318#2 207728318#3 207728320 -265905832 -265905833#1 -265905833#0 -119438058#9"/>
    </vehicle>
    <vehicle id="14" type="hSlowCar" depart="0.00">
        <route edges="250286862#1 -12182447#4 -12182447#3 -12182447#2 -12182447#1 -12182447#0 237920408#2 237920407#0 237920407#1 385669582 -7917435#6"/>
    </vehicle>
    <vehicle id="15" type="hSlowCar" depart="0.00">
        <route edges="150882376 -150882376 119440078#1 119440078#2 119440078#3 119440078#4 174044127#0 174044127#1 143995130 207908670#3 207908670#4 7917436 7917439#0"/>
    </vehicle>
    <vehicle id="16" type="hSlowCar" depart="0.00">
        <route edges="-250286860 -12182447#3 -12182447#2 -12182447#1 -12182447#0 -237920408#1 -237920408#0 -207908670#5 7917436 7917439#0"/>
    </vehicle>
    <vehicle id="17" type="hSlowCar" depart="0.00">
        <route edges="-18535923#0 -18535920#2 -18535920#1 18535919#2 18535918#1 317372995 317373389 8080895 4324389#1 4324389#2 157655114#0 157655114#1 157655114#2 7653582#0 148569944#0 -148569946"/>
    </vehicle>
    <vehicle id="18" type="hSlowCar" depart="0.00">
        <route edges="18535921#0 18535921#1 -7651496#0 138233901 448960166 448960167#0 448960167#1 386959361#0 386959361#1 386959361#2 386959361#3 138233900 18502699#1 18502699#2 18502699#3 18502702#0 18502702#1 18502702#2 18502702#3 18502697#3 18502697#4 -106608905#2 -106608905#1 -18503942"/>
    </vehicle>
    <vehicle id="19" type="hSlowCar" depart="0.00">
        <route edges="250777277#1 128931501#0 128931501#1 128931501#2 128931501#3 128932869#1 219406890#0 219406890#1 426269740 426269741#0 426269741#1 7917435#0 7917435#1 7917435#2 7917435#3 7917435#4 7917435#5 7917435#6 -385669582 -237920407#1 -237920407#0 -237920408#2 12182447#0 12182447#1 12182447#2 12182447#3 12182447#4 12182447#5 -207728318#2"/>
    </vehicle>
    <vehicle id="20" type="hSlowCar" depart="0.00">
        <route edges="-128752307 128752307 130096034#1 130096034#2 130096034#3 130096034#4 -207728319#4 -207728319#3 -207728319#2 -207728319#1 12182441 265905832 -207728320 -207728318#3"/>
    </vehicle>
    
</routes>
