<?xml version="1.0" encoding="UTF-8"?>

<!-- generated on Fri May 26 20:21:07 2017 by SUMO netconvert Version 0.21.0
<?xml version="1.0" encoding="UTF-8"?>

<configuration xmlns:xsi="http://www.w3.org/2001/XMLSchema-instance" xsi:noNamespaceSchemaLocation="http://sumo-sim.org/xsd/netconvertConfiguration.xsd">

    <input>
        <osm-files value="erlangen.osm"/>
    </input>

    <output>
        <output-file value="erlangen.net.xml"/>
    </output>

    <projection>
        <proj.utm value="true"/>
    </projection>

</configuration>
-->

<net version="0.13" xmlns:xsi="http://www.w3.org/2001/XMLSchema-instance" xsi:noNamespaceSchemaLocation="http://sumo-sim.org/xsd/net_file.xsd">

    <location netOffset="-644860.36,-5069252.37" convBoundary="0.00,0.00,2993.59,1645.59" origBoundary="4.863080,45.761306,4.901635,45.776103" projParameter="+proj=utm +zone=31 +ellps=WGS84 +datum=WGS84 +units=m +no_defs"/>

    <edge id=":110421994_0" function="internal">
        <lane id=":110421994_0_0" index="0" speed="8.33" length="6.15" shape="937.86,1170.75 931.76,1170.03"/>
    </edge>
    <edge id=":110421994_1" function="internal">
        <lane id=":110421994_1_0" index="0" speed="8.33" length="2.41" shape="937.86,1170.75 936.74,1169.78 936.43,1168.91"/>
    </edge>
    <edge id=":110421994_6" function="internal">
        <lane id=":110421994_6_0" index="0" speed="8.33" length="2.41" shape="936.43,1168.91 936.94,1168.14 938.27,1167.48"/>
    </edge>
    <edge id=":110421994_2" function="internal">
        <lane id=":110421994_2_0" index="0" speed="11.11" length="5.07" shape="935.53,1163.97 935.56,1165.36 936.03,1166.41 936.93,1167.11 938.27,1167.48"/>
    </edge>
    <edge id=":110421994_3" function="internal">
        <lane id=":110421994_3_0" index="0" speed="11.11" length="7.85" shape="935.53,1163.97 935.01,1166.75 934.21,1168.69 933.13,1169.78 931.76,1170.03"/>
    </edge>
    <edge id=":110421994_4" function="internal">
        <lane id=":110421994_4_0" index="0" speed="8.33" length="6.18" shape="932.13,1166.75 938.27,1167.48"/>
    </edge>
    <edge id=":110421994_5" function="internal">
        <lane id=":110421994_5_0" index="0" speed="8.33" length="2.41" shape="932.13,1166.75 933.27,1167.71 933.58,1168.58"/>
    </edge>
    <edge id=":110421994_7" function="internal">
        <lane id=":110421994_7_0" index="0" speed="8.33" length="2.41" shape="933.58,1168.58 933.08,1169.35 931.76,1170.03"/>
    </edge>
    <edge id=":110421999_0" function="internal">
        <lane id=":110421999_0_0" index="0" speed="11.11" length="5.08" shape="968.78,1174.74 967.38,1174.78 966.35,1175.26 965.70,1176.19 965.42,1177.56"/>
    </edge>
    <edge id=":110421999_1" function="internal">
        <lane id=":110421999_1_0" index="0" speed="8.33" length="6.18" shape="968.78,1174.74 962.65,1173.96"/>
    </edge>
    <edge id=":110421999_2" function="internal">
        <lane id=":110421999_2_0" index="0" speed="8.33" length="4.82" shape="968.78,1174.74 967.65,1173.78 967.34,1172.91 967.85,1172.14 969.17,1171.46"/>
    </edge>
    <edge id=":110421999_3" function="internal">
        <lane id=":110421999_3_0" index="0" speed="8.33" length="6.12" shape="963.10,1170.69 969.17,1171.46"/>
    </edge>
    <edge id=":110421999_4" function="internal">
        <lane id=":110421999_4_0" index="0" speed="11.11" length="7.83" shape="963.10,1170.69 964.25,1171.26 965.02,1172.59 965.41,1174.69 965.42,1177.56"/>
    </edge>
    <edge id=":110421999_5" function="internal">
        <lane id=":110421999_5_0" index="0" speed="8.33" length="4.82" shape="963.10,1170.69 964.21,1171.68 964.51,1172.55 963.99,1173.31 962.65,1173.96"/>
    </edge>
    <edge id=":110422009_0" function="internal">
        <lane id=":110422009_0_0" index="0" speed="8.33" length="6.24" shape="1125.09,1167.16 1118.88,1167.73"/>
    </edge>
    <edge id=":110422009_1" function="internal">
        <lane id=":110422009_1_0" index="0" speed="8.33" length="2.41" shape="1125.09,1167.16 1123.79,1166.44 1123.31,1165.65"/>
    </edge>
    <edge id=":110422009_6" function="internal">
        <lane id=":110422009_6_0" index="0" speed="8.33" length="2.41" shape="1123.31,1165.65 1123.65,1164.80 1124.82,1163.87"/>
    </edge>
    <edge id=":110422009_2" function="internal">
        <lane id=":110422009_2_0" index="0" speed="8.33" length="6.29" shape="1118.56,1164.45 1124.82,1163.87"/>
    </edge>
    <edge id=":110422009_3" function="internal">
        <lane id=":110422009_3_0" index="0" speed="8.33" length="2.41" shape="1118.56,1164.45 1119.87,1165.15 1120.36,1165.93"/>
    </edge>
    <edge id=":110422009_7" function="internal">
        <lane id=":110422009_7_0" index="0" speed="8.33" length="2.41" shape="1120.36,1165.93 1120.03,1166.79 1118.88,1167.73"/>
    </edge>
    <edge id=":110422009_4" function="internal">
        <lane id=":110422009_4_0" index="0" speed="11.11" length="5.15" shape="1122.09,1170.72 1121.92,1169.29 1121.33,1168.32 1120.31,1167.80 1118.88,1167.73"/>
    </edge>
    <edge id=":110422009_5" function="internal">
        <lane id=":110422009_5_0" index="0" speed="11.11" length="3.33" shape="1122.09,1170.72 1122.32,1167.80 1122.42,1167.41"/>
    </edge>
    <edge id=":110422009_8" function="internal">
        <lane id=":110422009_8_0" index="0" speed="11.11" length="4.56" shape="1122.42,1167.41 1122.85,1165.69 1123.68,1164.38 1124.82,1163.87"/>
    </edge>
    <edge id=":110422013_0" function="internal">
        <lane id=":110422013_0_0" index="0" speed="11.11" length="5.26" shape="1244.45,1155.88 1243.23,1156.22 1242.31,1156.95 1241.69,1158.07 1241.38,1159.57"/>
    </edge>
    <edge id=":110422013_1" function="internal">
        <lane id=":110422013_1_0" index="0" speed="8.33" length="6.25" shape="1244.45,1155.88 1238.24,1156.53"/>
    </edge>
    <edge id=":110422013_2" function="internal">
        <lane id=":110422013_2_0" index="0" speed="8.33" length="4.82" shape="1244.45,1155.88 1243.14,1155.19 1242.64,1154.41 1242.96,1153.55 1244.11,1152.60"/>
    </edge>
    <edge id=":110422013_3" function="internal">
        <lane id=":110422013_3_0" index="0" speed="8.33" length="6.24" shape="1237.90,1153.24 1244.11,1152.60"/>
    </edge>
    <edge id=":110422013_4" function="internal">
        <lane id=":110422013_4_0" index="0" speed="11.11" length="8.43" shape="1237.90,1153.24 1239.65,1153.48 1240.82,1154.61 1241.40,1156.64 1241.38,1159.57"/>
    </edge>
    <edge id=":110422013_5" function="internal">
        <lane id=":110422013_5_0" index="0" speed="8.33" length="4.82" shape="1237.90,1153.24 1239.21,1153.94 1239.71,1154.72 1239.38,1155.58 1238.24,1156.53"/>
    </edge>
    <edge id=":110422017_0" function="internal">
        <lane id=":110422017_0_0" index="0" speed="18.06" length="6.21" shape="1346.21,1145.44 1340.04,1146.07"/>
    </edge>
    <edge id=":110422017_1" function="internal">
        <lane id=":110422017_1_0" index="0" speed="18.06" length="4.86" shape="1346.21,1145.44 1344.66,1145.19 1343.55,1144.07 1342.99,1142.45"/>
    </edge>
    <edge id=":110422017_2" function="internal">
        <lane id=":110422017_2_0" index="0" speed="22.22" length="2.41" shape="1346.21,1145.44 1344.90,1144.74 1344.41,1143.97"/>
    </edge>
    <edge id=":110422017_6" function="internal">
        <lane id=":110422017_6_0" index="0" speed="18.06" length="3.25" shape="1342.99,1142.45 1342.86,1142.08 1342.62,1139.23"/>
    </edge>
    <edge id=":110422017_7" function="internal">
        <lane id=":110422017_7_0" index="0" speed="22.22" length="2.41" shape="1344.41,1143.97 1344.73,1143.10 1345.88,1142.16"/>
    </edge>
    <edge id=":110422017_3" function="internal">
        <lane id=":110422017_3_0" index="0" speed="13.89" length="5.14" shape="1339.70,1142.78 1340.99,1142.45 1341.90,1141.75 1342.45,1140.67 1342.62,1139.23"/>
    </edge>
    <edge id=":110422017_4" function="internal">
        <lane id=":110422017_4_0" index="0" speed="18.06" length="6.21" shape="1339.70,1142.78 1345.88,1142.16"/>
    </edge>
    <edge id=":110422017_5" function="internal">
        <lane id=":110422017_5_0" index="0" speed="13.89" length="2.41" shape="1339.70,1142.78 1341.02,1143.48 1341.51,1144.26"/>
    </edge>
    <edge id=":110422017_8" function="internal">
        <lane id=":110422017_8_0" index="0" speed="13.89" length="2.41" shape="1341.51,1144.26 1341.18,1145.12 1340.04,1146.07"/>
    </edge>
    <edge id=":110422026_0" function="internal">
        <lane id=":110422026_0_0" index="0" allow="pedestrian" speed="11.11" length="5.89" shape="1287.21,1151.43 1285.59,1151.80 1284.41,1152.55 1283.69,1153.66 1283.41,1155.14"/>
    </edge>
    <edge id=":110422026_1" function="internal">
        <lane id=":110422026_1_0" index="0" speed="11.11" length="7.05" shape="1287.21,1151.43 1280.20,1152.15"/>
    </edge>
    <edge id=":110422026_2" function="internal">
        <lane id=":110422026_2_0" index="0" speed="13.89" length="2.41" shape="1287.21,1151.43 1285.90,1150.74 1285.41,1149.96"/>
    </edge>
    <edge id=":110422026_9" function="internal">
        <lane id=":110422026_9_0" index="0" speed="13.89" length="2.41" shape="1285.41,1149.96 1285.73,1149.09 1286.88,1148.15"/>
    </edge>
    <edge id=":110422026_3" function="internal">
        <lane id=":110422026_3_0" index="0" speed="18.06" length="5.15" shape="1283.65,1145.18 1283.83,1146.60 1284.43,1147.57 1285.45,1148.09 1286.88,1148.15"/>
    </edge>
    <edge id=":110422026_4" function="internal">
        <lane id=":110422026_4_0" index="0" allow="pedestrian" speed="15.28" length="9.96" shape="1283.65,1145.18 1283.41,1155.14"/>
    </edge>
    <edge id=":110422026_5" function="internal">
        <lane id=":110422026_5_0" index="0" speed="15.28" length="8.46" shape="1283.65,1145.18 1283.39,1148.10 1282.73,1150.24 1281.67,1151.59 1280.20,1152.15"/>
    </edge>
    <edge id=":110422026_6" function="internal">
        <lane id=":110422026_6_0" index="0" speed="11.11" length="7.06" shape="1279.86,1148.87 1286.88,1148.15"/>
    </edge>
    <edge id=":110422026_7" function="internal">
        <lane id=":110422026_7_0" index="0" allow="pedestrian" speed="8.33" length="4.94" shape="1279.86,1148.87 1281.49,1149.12 1282.63,1150.24 1283.14,1151.85"/>
    </edge>
    <edge id=":110422026_8" function="internal">
        <lane id=":110422026_8_0" index="0" speed="8.33" length="2.41" shape="1279.86,1148.87 1281.18,1149.56 1281.67,1150.34"/>
    </edge>
    <edge id=":110422026_10" function="internal">
        <lane id=":110422026_10_0" index="0" speed="8.33" length="3.31" shape="1283.14,1151.85 1283.27,1152.25 1283.41,1155.14"/>
    </edge>
    <edge id=":110422026_11" function="internal">
        <lane id=":110422026_11_0" index="0" speed="8.33" length="2.41" shape="1281.67,1150.34 1281.35,1151.20 1280.20,1152.15"/>
    </edge>
    <edge id=":110422030_0" function="internal">
        <lane id=":110422030_0_0" index="0" speed="13.89" length="3.47" shape="1340.42,895.56 1340.39,894.03 1340.32,892.96 1340.21,892.33 1340.06,892.14"/>
    </edge>
    <edge id=":110422030_1" function="internal">
        <lane id=":110422030_1_0" index="0" speed="13.89" length="3.54" shape="1340.42,895.56 1340.52,892.52 1340.60,892.02"/>
    </edge>
    <edge id=":110422030_6" function="internal">
        <lane id=":110422030_6_0" index="0" speed="13.89" length="4.39" shape="1340.60,892.02 1340.88,890.29 1341.49,888.86 1342.37,888.23"/>
    </edge>
    <edge id=":110422030_2" function="internal">
        <lane id=":110422030_2_0" index="0" speed="13.89" length="3.12" shape="1343.11,891.45 1340.06,892.14"/>
    </edge>
    <edge id=":110422030_3" function="internal">
        <lane id=":110422030_3_0" index="0" speed="13.89" length="2.41" shape="1343.11,891.45 1341.72,890.92 1341.13,890.21"/>
    </edge>
    <edge id=":110422030_7" function="internal">
        <lane id=":110422030_7_0" index="0" speed="13.89" length="2.41" shape="1341.13,890.21 1341.35,889.31 1342.37,888.23"/>
    </edge>
    <edge id=":110422030_4" function="internal">
        <lane id=":110422030_4_0" index="0" speed="13.89" length="6.08" shape="1336.45,889.59 1342.37,888.23"/>
    </edge>
    <edge id=":110422030_5" function="internal">
        <lane id=":110422030_5_0" index="0" speed="13.89" length="3.24" shape="1336.45,889.59 1338.31,888.87 1339.53,889.06"/>
    </edge>
    <edge id=":110422030_8" function="internal">
        <lane id=":110422030_8_0" index="0" speed="13.89" length="3.24" shape="1339.53,889.06 1340.12,890.15 1340.06,892.14"/>
    </edge>
    <edge id=":110422035_0" function="internal">
        <lane id=":110422035_0_0" index="0" speed="13.89" length="5.11" shape="1426.18,875.75 1425.79,874.38 1425.06,873.51 1423.99,873.13 1422.58,873.25"/>
    </edge>
    <edge id=":110422035_1" function="internal">
        <lane id=":110422035_1_0" index="0" speed="13.89" length="3.38" shape="1426.18,875.75 1426.16,872.82 1426.31,872.39"/>
    </edge>
    <edge id=":110422035_2" function="internal">
        <lane id=":110422035_2_0" index="0" speed="13.89" length="2.41" shape="1426.18,875.75 1426.83,874.41 1427.60,873.89"/>
    </edge>
    <edge id=":110422035_9" function="internal">
        <lane id=":110422035_9_0" index="0" speed="13.89" length="6.99" shape="1426.31,872.39 1426.98,870.53 1428.63,868.90 1431.12,867.91"/>
    </edge>
    <edge id=":110422035_10" function="internal">
        <lane id=":110422035_10_0" index="0" speed="13.89" length="2.41" shape="1427.60,873.89 1428.47,874.19 1429.45,875.30"/>
    </edge>
    <edge id=":110422035_3" function="internal">
        <lane id=":110422035_3_0" index="0" speed="13.89" length="5.39" shape="1431.86,871.12 1430.63,871.63 1429.82,872.50 1429.42,873.72 1429.45,875.30"/>
    </edge>
    <edge id=":110422035_4" function="internal">
        <lane id=":110422035_4_0" index="0" speed="13.89" length="9.53" shape="1431.86,871.12 1422.58,873.25"/>
    </edge>
    <edge id=":110422035_5" function="internal">
        <lane id=":110422035_5_0" index="0" speed="13.89" length="2.41" shape="1431.86,871.12 1430.47,870.59 1429.88,869.88"/>
    </edge>
    <edge id=":110422035_11" function="internal">
        <lane id=":110422035_11_0" index="0" speed="13.89" length="2.41" shape="1429.88,869.88 1430.10,868.99 1431.12,867.91"/>
    </edge>
    <edge id=":110422035_6" function="internal">
        <lane id=":110422035_6_0" index="0" speed="13.89" length="9.53" shape="1421.84,870.03 1431.12,867.91"/>
    </edge>
    <edge id=":110422035_7" function="internal">
        <lane id=":110422035_7_0" index="0" speed="13.89" length="7.18" shape="1421.84,870.03 1424.82,869.79 1427.09,870.58 1428.24,871.95"/>
    </edge>
    <edge id=":110422035_8" function="internal">
        <lane id=":110422035_8_0" index="0" speed="13.89" length="2.41" shape="1421.84,870.03 1423.23,870.56 1423.81,871.27"/>
    </edge>
    <edge id=":110422035_12" function="internal">
        <lane id=":110422035_12_0" index="0" speed="13.89" length="3.61" shape="1428.24,871.95 1428.63,872.42 1429.45,875.30"/>
    </edge>
    <edge id=":110422035_13" function="internal">
        <lane id=":110422035_13_0" index="0" speed="13.89" length="2.41" shape="1423.81,871.27 1423.60,872.17 1422.58,873.25"/>
    </edge>
    <edge id=":110422048_0" function="internal">
        <lane id=":110422048_0_0" index="0" speed="22.22" length="9.44" shape="1451.34,1134.47 1441.95,1135.42"/>
    </edge>
    <edge id=":110422048_1" function="internal">
        <lane id=":110422048_1_0" index="0" speed="18.06" length="7.11" shape="1451.34,1134.47 1448.46,1134.33 1446.34,1133.30 1445.27,1131.77"/>
    </edge>
    <edge id=":110422048_2" function="internal">
        <lane id=":110422048_2_0" index="0" speed="22.22" length="2.41" shape="1451.34,1134.47 1450.03,1133.77 1449.54,1132.98"/>
    </edge>
    <edge id=":110422048_9" function="internal">
        <lane id=":110422048_9_0" index="0" speed="18.06" length="3.38" shape="1445.27,1131.77 1444.99,1131.37 1444.40,1128.54"/>
    </edge>
    <edge id=":110422048_10" function="internal">
        <lane id=":110422048_10_0" index="0" speed="22.22" length="2.41" shape="1449.54,1132.98 1449.88,1132.12 1451.03,1131.19"/>
    </edge>
    <edge id=":110422048_3" function="internal">
        <lane id=":110422048_3_0" index="0" speed="18.06" length="5.04" shape="1447.70,1128.34 1447.98,1129.69 1448.63,1130.62 1449.64,1131.12 1451.03,1131.19"/>
    </edge>
    <edge id=":110422048_4" function="internal">
        <lane id=":110422048_4_0" index="0" speed="18.06" length="10.30" shape="1447.70,1128.34 1447.49,1131.19 1446.46,1133.32 1444.61,1134.73 1441.95,1135.42"/>
    </edge>
    <edge id=":110422048_5" function="internal">
        <lane id=":110422048_5_0" index="0" speed="13.89" length="4.82" shape="1447.70,1128.34 1446.95,1129.62 1446.15,1130.08 1445.30,1129.72 1444.40,1128.54"/>
    </edge>
    <edge id=":110422048_6" function="internal">
        <lane id=":110422048_6_0" index="0" speed="18.06" length="5.15" shape="1441.59,1132.14 1442.90,1131.79 1443.80,1131.08 1444.30,1129.99 1444.40,1128.54"/>
    </edge>
    <edge id=":110422048_7" function="internal">
        <lane id=":110422048_7_0" index="0" speed="22.22" length="9.48" shape="1441.59,1132.14 1451.03,1131.19"/>
    </edge>
    <edge id=":110422048_8" function="internal">
        <lane id=":110422048_8_0" index="0" speed="22.22" length="2.41" shape="1441.59,1132.14 1442.91,1132.83 1443.41,1133.60"/>
    </edge>
    <edge id=":110422048_11" function="internal">
        <lane id=":110422048_11_0" index="0" speed="22.22" length="2.41" shape="1443.41,1133.60 1443.09,1134.47 1441.95,1135.42"/>
    </edge>
    <edge id=":1226411788_0" function="internal">
        <lane id=":1226411788_0_0" index="0" speed="22.22" length="6.26" shape="2090.34,1179.43 2089.96,1173.18"/>
    </edge>
    <edge id=":1226411788_1" function="internal">
        <lane id=":1226411788_1_0" index="0" speed="22.22" length="4.86" shape="2090.34,1179.43 2090.65,1177.91 2091.80,1176.84 2093.46,1176.32"/>
    </edge>
    <edge id=":1226411788_2" function="internal">
        <lane id=":1226411788_2_0" index="0" speed="22.22" length="2.41" shape="2090.34,1179.43 2091.08,1178.14 2091.88,1177.68"/>
    </edge>
    <edge id=":1226411788_6" function="internal">
        <lane id=":1226411788_6_0" index="0" speed="22.22" length="3.22" shape="2093.46,1176.32 2093.81,1176.22 2096.66,1176.05"/>
    </edge>
    <edge id=":1226411788_7" function="internal">
        <lane id=":1226411788_7_0" index="0" speed="22.22" length="2.41" shape="2091.88,1177.68 2092.73,1178.04 2093.63,1179.22"/>
    </edge>
    <edge id=":1226411788_3" function="internal">
        <lane id=":1226411788_3_0" index="0" speed="22.22" length="5.12" shape="2093.26,1173.00 2093.53,1174.31 2094.19,1175.26 2095.23,1175.84 2096.66,1176.05"/>
    </edge>
    <edge id=":1226411788_4" function="internal">
        <lane id=":1226411788_4_0" index="0" speed="22.22" length="6.23" shape="2093.26,1173.00 2093.63,1179.22"/>
    </edge>
    <edge id=":1226411788_5" function="internal">
        <lane id=":1226411788_5_0" index="0" speed="22.22" length="2.41" shape="2093.26,1173.00 2092.50,1174.28 2091.70,1174.74"/>
    </edge>
    <edge id=":1226411788_8" function="internal">
        <lane id=":1226411788_8_0" index="0" speed="22.22" length="2.41" shape="2091.70,1174.74 2090.86,1174.37 2089.96,1173.18"/>
    </edge>
    <edge id=":1226411789_0" function="internal">
        <lane id=":1226411789_0_0" index="0" speed="18.06" length="5.08" shape="2091.47,1196.32 2091.17,1194.95 2090.50,1194.04 2089.46,1193.57 2088.06,1193.56"/>
    </edge>
    <edge id=":1226411789_1" function="internal">
        <lane id=":1226411789_1_0" index="0" speed="18.06" length="9.50" shape="2091.47,1196.32 2090.81,1186.85"/>
    </edge>
    <edge id=":1226411789_2" function="internal">
        <lane id=":1226411789_2_0" index="0" speed="13.89" length="4.82" shape="2091.47,1196.32 2092.20,1195.03 2092.99,1194.56 2093.85,1194.91 2094.76,1196.08"/>
    </edge>
    <edge id=":1226411789_3" function="internal">
        <lane id=":1226411789_3_0" index="0" speed="18.06" length="9.47" shape="2094.11,1186.64 2094.76,1196.08"/>
    </edge>
    <edge id=":1226411789_4" function="internal">
        <lane id=":1226411789_4_0" index="0" speed="22.22" length="10.33" shape="2094.11,1186.64 2093.87,1189.34 2092.79,1191.39 2090.85,1192.80 2088.06,1193.56"/>
    </edge>
    <edge id=":1226411789_5" function="internal">
        <lane id=":1226411789_5_0" index="0" speed="22.22" length="2.41" shape="2094.11,1186.64 2093.36,1187.92 2092.57,1188.39"/>
    </edge>
    <edge id=":1226411789_9" function="internal">
        <lane id=":1226411789_9_0" index="0" speed="22.22" length="2.41" shape="2092.57,1188.39 2091.72,1188.03 2090.81,1186.85"/>
    </edge>
    <edge id=":1226411789_6" function="internal">
        <lane id=":1226411789_6_0" index="0" speed="22.22" length="5.28" shape="2087.61,1190.29 2089.09,1189.90 2090.11,1189.20 2090.69,1188.18 2090.81,1186.85"/>
    </edge>
    <edge id=":1226411789_7" function="internal">
        <lane id=":1226411789_7_0" index="0" speed="18.06" length="5.44" shape="2087.61,1190.29 2090.56,1190.31 2092.73,1191.29 2092.80,1191.38"/>
    </edge>
    <edge id=":1226411789_8" function="internal">
        <lane id=":1226411789_8_0" index="0" speed="22.22" length="2.41" shape="2087.61,1190.29 2088.95,1190.94 2089.47,1191.71"/>
    </edge>
    <edge id=":1226411789_10" function="internal">
        <lane id=":1226411789_10_0" index="0" speed="18.06" length="5.20" shape="2092.80,1191.38 2094.13,1193.21 2094.76,1196.08"/>
    </edge>
    <edge id=":1226411789_11" function="internal">
        <lane id=":1226411789_11_0" index="0" speed="22.22" length="2.41" shape="2089.47,1191.71 2089.17,1192.58 2088.06,1193.56"/>
    </edge>
    <edge id=":1241238680_0" function="internal">
        <lane id=":1241238680_0_0" index="0" speed="9.72" length="5.16" shape="2089.34,371.07 2089.54,372.51 2090.11,373.56 2091.06,374.20 2092.39,374.45"/>
    </edge>
    <edge id=":1241238680_1" function="internal">
        <lane id=":1241238680_1_0" index="0" allow="delivery" speed="5.56" length="4.82" shape="2089.34,371.07 2088.52,372.31 2087.70,372.73 2086.87,372.32 2086.04,371.08"/>
    </edge>
    <edge id=":1241238680_2" function="internal">
        <lane id=":1241238680_2_0" index="0" allow="delivery" speed="9.72" length="5.04" shape="2082.90,374.15 2084.28,373.99 2085.26,373.43 2085.85,372.46 2086.04,371.08"/>
    </edge>
    <edge id=":1241238680_3" function="internal">
        <lane id=":1241238680_3_0" index="0" speed="13.89" length="9.50" shape="2082.90,374.15 2092.39,374.45"/>
        <lane id=":1241238680_3_1" index="1" speed="13.89" length="9.50" shape="2082.79,377.44 2092.28,377.75"/>
    </edge>
    <edge id=":1242371158_0" function="internal">
        <lane id=":1242371158_0_0" index="0" speed="13.89" length="5.18" shape="1997.53,737.88 1997.19,736.47 1996.49,735.58 1995.41,735.20 1993.96,735.34"/>
    </edge>
    <edge id=":1242371158_1" function="internal">
        <lane id=":1242371158_1_0" index="0" speed="13.89" length="3.52" shape="1997.53,737.88 1997.61,734.89 1997.79,734.40"/>
    </edge>
    <edge id=":1242371158_2" function="internal">
        <lane id=":1242371158_2_0" index="0" speed="13.89" length="2.41" shape="1997.53,737.88 1998.24,736.58 1999.02,736.09"/>
    </edge>
    <edge id=":1242371158_9" function="internal">
        <lane id=":1242371158_9_0" index="0" speed="13.89" length="6.88" shape="1997.79,734.40 1998.45,732.55 2000.06,730.87 2002.44,729.84"/>
    </edge>
    <edge id=":1242371158_10" function="internal">
        <lane id=":1242371158_10_0" index="0" speed="13.89" length="2.41" shape="1999.02,736.09 1999.88,736.42 2000.82,737.58"/>
    </edge>
    <edge id=":1242371158_3" function="internal">
        <lane id=":1242371158_3_0" index="0" speed="13.89" length="5.66" shape="2003.25,733.04 2002.05,733.59 2001.25,734.53 2000.84,735.86 2000.82,737.58"/>
    </edge>
    <edge id=":1242371158_4" function="internal">
        <lane id=":1242371158_4_0" index="0" speed="13.89" length="9.56" shape="2003.25,733.04 1993.96,735.34"/>
    </edge>
    <edge id=":1242371158_5" function="internal">
        <lane id=":1242371158_5_0" index="0" speed="13.89" length="2.41" shape="2003.25,733.04 2001.85,732.54 2001.24,731.84"/>
    </edge>
    <edge id=":1242371158_11" function="internal">
        <lane id=":1242371158_11_0" index="0" speed="13.89" length="2.41" shape="2001.24,731.84 2001.44,730.94 2002.44,729.84"/>
    </edge>
    <edge id=":1242371158_6" function="internal">
        <lane id=":1242371158_6_0" index="0" speed="13.89" length="9.54" shape="1993.18,732.14 2002.44,729.84"/>
    </edge>
    <edge id=":1242371158_7" function="internal">
        <lane id=":1242371158_7_0" index="0" speed="13.89" length="7.21" shape="1993.18,732.14 1996.27,731.84 1998.58,732.64 1999.61,733.94"/>
    </edge>
    <edge id=":1242371158_8" function="internal">
        <lane id=":1242371158_8_0" index="0" speed="13.89" length="2.41" shape="1993.18,732.14 1994.58,732.64 1995.18,733.35"/>
    </edge>
    <edge id=":1242371158_12" function="internal">
        <lane id=":1242371158_12_0" index="0" speed="13.89" length="3.89" shape="1999.61,733.94 2000.09,734.56 2000.82,737.58"/>
    </edge>
    <edge id=":1242371158_13" function="internal">
        <lane id=":1242371158_13_0" index="0" speed="13.89" length="2.41" shape="1995.18,733.35 1994.97,734.25 1993.96,735.34"/>
    </edge>
    <edge id=":1242371194_0" function="internal">
        <lane id=":1242371194_0_0" index="0" speed="22.22" length="9.90" shape="2021.71,947.96 2012.13,945.50"/>
        <lane id=":1242371194_0_1" index="1" speed="22.22" length="9.90" shape="2022.53,944.77 2012.95,942.30"/>
    </edge>
    <edge id=":1242371194_2" function="internal">
        <lane id=":1242371194_2_0" index="0" speed="18.06" length="8.73" shape="2022.53,944.77 2019.91,943.86 2017.99,942.68 2016.78,941.23 2016.27,939.49"/>
    </edge>
    <edge id=":1242371194_3" function="internal">
        <lane id=":1242371194_3_0" index="0" speed="18.06" length="8.96" shape="2019.56,939.20 2019.30,941.24 2018.11,942.43 2016.00,942.79 2012.95,942.30"/>
    </edge>
    <edge id=":1242371194_4" function="internal">
        <lane id=":1242371194_4_0" index="0" speed="13.89" length="4.82" shape="2019.56,939.20 2018.85,940.51 2018.06,940.99 2017.20,940.65 2016.27,939.49"/>
    </edge>
    <edge id=":1242516434_0" function="internal">
        <lane id=":1242516434_0_0" index="0" speed="22.22" length="5.73" shape="2198.30,957.31 2197.85,955.74 2197.07,954.63 2195.95,953.99 2194.51,953.82"/>
    </edge>
    <edge id=":1242516434_1" function="internal">
        <lane id=":1242516434_1_0" index="0" speed="22.22" length="5.27" shape="2198.30,957.31 2197.55,952.09"/>
    </edge>
    <edge id=":1242516434_2" function="internal">
        <lane id=":1242516434_2_0" index="0" speed="22.22" length="4.82" shape="2198.30,957.31 2198.92,955.96 2199.67,955.42 2200.55,955.70 2201.56,956.80"/>
    </edge>
    <edge id=":1242516434_3" function="internal">
        <lane id=":1242516434_3_0" index="0" speed="22.22" length="5.13" shape="2204.32,953.40 2202.92,953.67 2202.00,954.33 2201.54,955.37 2201.56,956.80"/>
    </edge>
    <edge id=":1242516434_4" function="internal">
        <lane id=":1242516434_4_0" index="0" speed="22.22" length="9.83" shape="2204.32,953.40 2194.51,953.82"/>
    </edge>
    <edge id=":1242516434_5" function="internal">
        <lane id=":1242516434_5_0" index="0" speed="22.22" length="7.22" shape="2204.32,953.40 2201.43,953.44 2199.34,953.24 2198.05,952.79 2197.55,952.09"/>
    </edge>
    <edge id=":1242516434_6" function="internal">
        <lane id=":1242516434_6_0" index="0" speed="22.22" length="6.55" shape="2200.67,950.31 2201.56,956.80"/>
    </edge>
    <edge id=":1242516434_7" function="internal">
        <lane id=":1242516434_7_0" index="0" speed="22.22" length="7.95" shape="2200.67,950.31 2200.42,951.76 2199.32,952.82 2197.34,953.51 2194.51,953.82"/>
    </edge>
    <edge id=":1242516434_8" function="internal">
        <lane id=":1242516434_8_0" index="0" speed="22.22" length="5.24" shape="2200.67,950.31 2200.56,951.92 2200.00,952.75 2199.00,952.81 2197.55,952.09"/>
    </edge>
    <edge id=":1242516440_0" function="internal">
        <lane id=":1242516440_0_0" index="0" allow="delivery" speed="13.89" length="5.26" shape="1680.68,392.21 1680.74,393.69 1681.27,394.70 1682.28,395.24 1683.76,395.31"/>
    </edge>
    <edge id=":1242516440_1" function="internal">
        <lane id=":1242516440_1_0" index="0" speed="22.22" length="6.31" shape="1680.68,392.21 1680.11,398.49"/>
    </edge>
    <edge id=":1242516440_2" function="internal">
        <lane id=":1242516440_2_0" index="0" speed="22.22" length="2.41" shape="1680.68,392.21 1679.73,393.35 1678.86,393.68"/>
    </edge>
    <edge id=":1242516440_6" function="internal">
        <lane id=":1242516440_6_0" index="0" speed="22.22" length="2.41" shape="1678.86,393.68 1678.09,393.18 1677.39,391.87"/>
    </edge>
    <edge id=":1242516440_3" function="internal">
        <lane id=":1242516440_3_0" index="0" speed="22.22" length="6.41" shape="1676.82,398.26 1677.39,391.87"/>
    </edge>
    <edge id=":1242516440_4" function="internal">
        <lane id=":1242516440_4_0" index="0" allow="delivery" speed="13.89" length="4.50" shape="1676.82,398.26 1677.31,397.21 1678.63,396.37 1680.34,395.87"/>
    </edge>
    <edge id=":1242516440_5" function="internal">
        <lane id=":1242516440_5_0" index="0" speed="22.22" length="2.41" shape="1676.82,398.26 1677.73,397.08 1678.58,396.73"/>
    </edge>
    <edge id=":1242516440_7" function="internal">
        <lane id=":1242516440_7_0" index="0" speed="13.89" length="3.46" shape="1680.34,395.87 1680.78,395.74 1683.76,395.31"/>
    </edge>
    <edge id=":1242516440_8" function="internal">