<?xml version="1.0" encoding="UTF-8"?>

<!-- generated on Fri May 26 20:21:09 2017 by SUMO polyconvert Version 0.21.0
<?xml version="1.0" encoding="UTF-8"?>

<configuration xmlns:xsi="http://www.w3.org/2001/XMLSchema-instance" xsi:noNamespaceSchemaLocation="http://sumo-sim.org/xsd/polyconvertConfiguration.xsd">

    <input>
        <net-file value="erlangen.net.xml"/>
        <osm-files value="erlangen.osm"/>
        <type-file value="typemap.xml"/>
    </input>

    <output>
        <output-file value="erlangen.poly.xml"/>
    </output>

</configuration>
-->

<additional xmlns:xsi="http://www.w3.org/2001/XMLSchema-instance" xsi:noNamespaceSchemaLocation="http://sumo-sim.org/xsd/additional_file.xsd">
    <poly id="10361810" type="unknown" color="51,128,255" fill="0" layer="-1.00" shape="1239.68,598.07 1246.26,598.50 1278.94,600.61 1290.18,601.33 1300.40,602.20 1334.61,603.69 1341.63,604.00"/>
    <poly id="106608905" type="unknown" color="51,128,255" fill="0" layer="-1.00" shape="2091.18,1165.09 2192.85,1087.57 2217.29,1068.41 2360.67,957.58"/>
    <poly id="108043727" type="unknown" color="51,128,255" fill="0" layer="-1.00" shape="2067.33,553.11 2068.01,578.44 2072.01,678.35 2072.77,705.83 2072.83,713.91"/>
    <poly id="108156079" type="building" color="255,230,230" fill="1" layer="2.00" shape="2115.80,557.86 2143.72,557.14 2145.38,592.54 2134.94,592.70 2133.79,571.04 2116.34,571.65 2115.80,557.86"/>
    <poly id="108156080" type="amenity" color="237,199,199" fill="1" layer="2.00" shape="1709.87,834.35 1707.89,825.65 1717.48,823.26 1717.07,821.69 1732.23,817.98 1733.27,821.87 1737.24,820.78 1736.80,818.95 1738.85,818.48 1738.34,816.50 1745.31,814.79 1745.64,816.18 1747.98,815.62 1746.34,828.45 1743.51,829.94 1740.82,831.07 1738.18,832.18 1734.95,833.00 1731.30,833.66 1727.85,833.91 1725.69,834.03 1722.80,835.03 1720.44,835.59 1717.51,835.76 1714.67,835.79 1712.11,835.32 1710.05,834.86 1709.87,834.35"/>
    <poly id="108156080#1" type="building" color="255,230,230" fill="1" layer="2.00" shape="1709.87,834.35 1707.89,825.65 1717.48,823.26 1717.07,821.69 1732.23,817.98 1733.27,821.87 1737.24,820.78 1736.80,818.95 1738.85,818.48 1738.34,816.50 1745.31,814.79 1745.64,816.18 1747.98,815.62 1746.34,828.45 1743.51,829.94 1740.82,831.07 1738.18,832.18 1734.95,833.00 1731.30,833.66 1727.85,833.91 1725.69,834.03 1722.80,835.03 1720.44,835.59 1717.51,835.76 1714.67,835.79 1712.11,835.32 1710.05,834.86 1709.87,834.35"/>
    <poly id="108255160" type="unknown" color="51,128,255" fill="0" layer="-1.00" shape="1998.68,732.48 1999.74,743.81 2004.44,777.48 2018.02,940.59 2018.44,945.42"/>
    <poly id="108265295" type="unknown" color="51,128,255" fill="0" layer="-1.00" shape="1678.64,395.80 1687.19,394.98 1769.39,404.11 1808.56,392.32 1812.47,387.94 1813.11,382.69"/>
    <poly id="108265296" type="unknown" color="51,128,255" fill="0" layer="-1.00" shape="2217.29,1068.41 2199.39,953.64 2198.80,948.59"/>
    <poly id="113944613" type="unknown" color="51,128,255" fill="0" layer="-1.00" shape="1169.75,642.74 1175.19,643.06 1230.21,646.30 1236.75,646.68"/>
    <poly id="119438058" type="unknown" color="51,128,255" fill="0" layer="-1.00" shape="904.81,1165.31 921.32,1167.19 935.10,1168.74 941.94,1169.59 953.40,1171.03 965.69,1172.71 991.38,1175.77 998.76,1176.73 1004.38,1177.24 1010.03,1177.20 1013.32,1176.94 1030.73,1175.56 1040.06,1174.82 1109.52,1166.99 1113.52,1166.60 1122.21,1165.74 1127.34,1165.31 1149.00,1163.27 1172.29,1161.17 1211.77,1157.62 1231.85,1155.52 1241.74,1154.50"/>
    <poly id="119438059" type="unknown" color="51,128,255" fill="0" layer="-1.00" shape="1865.75,1103.42 1849.73,1106.25 1833.67,1107.83 1794.75,1108.02 1754.72,1108.38 1729.51,1108.48 1727.48,1108.46 1721.99,1108.66"/>
    <poly id="119440078" type="unknown" color="51,128,255" fill="0" layer="-1.00" shape="2018.44,945.42 1966.15,931.95 1962.70,931.06 1876.87,909.81 1837.53,899.90 1698.88,867.93 1685.09,864.75"/>
    <poly id="120236746" type="tourism" color="207,245,201" fill="1" layer="-10.00" shape="749.01,1258.25 796.67,1259.43 797.45,1231.41 820.75,1232.17 813.97,1208.14 812.15,1185.02 801.11,1183.49 795.79,1180.77 791.73,1176.04 791.29,1162.96 756.55,1161.87 754.26,1217.03 747.86,1216.80 746.15,1252.26 749.01,1258.25"/>
    <poly id="120260525" type="tourism" color="207,245,201" fill="1" layer="-10.00" shape="981.38,915.37 981.87,896.66 1014.59,898.26 1013.27,918.70 981.38,915.37"/>
    <poly id="121700403" type="unknown" color="51,128,255" fill="0" layer="-1.00" shape="2539.09,644.61 2539.42,654.17 2539.31,712.06"/>
    <poly id="121700406" type="unknown" color="51,128,255" fill="0" layer="-1.00" shape="2470.66,623.23 2469.16,630.35 2471.36,653.40"/>
    <poly id="121700407" type="unknown" color="51,128,255" fill="0" layer="-1.00" shape="2179.68,954.33 2179.36,949.35 2172.56,839.36"/>
    <poly id="121700409" type="unknown" color="51,128,255" fill="0" layer="-1.00" shape="2344.46,944.77 2339.42,942.10 2324.70,812.18"/>
    <poly id="12182441" type="unknown" color="51,128,255" fill="0" layer="-1.00" shape="1279.77,905.31 1279.82,908.34 1279.92,914.64 1283.66,1144.59 1283.57,1150.14"/>
    <poly id="12182442" type="unknown" color="51,128,255" fill="0" layer="-1.00" shape="1342.66,1144.14 1340.53,908.20 1340.44,898.39 1340.40,893.36 1340.37,890.38"/>
    <poly id="12182447" type="unknown" color="51,128,255" fill="0" layer="-1.00" shape="1427.13,870.51 1428.25,878.74 1432.37,906.56 1433.00,916.83 1436.17,968.42 1438.86,1012.20 1439.56,1023.51 1446.35,1133.28"/>
    <poly id="12182451" type="unknown" color="51,128,255" fill="0" layer="-1.00" shape="1241.74,1154.50 1241.39,1159.41 1239.58,1179.34 1233.74,1243.50 1227.10,1308.21 1226.08,1317.04"/>
    <poly id="12182453" type="unknown" color="51,128,255" fill="0" layer="-1.00" shape="1113.29,1508.42 1116.78,1380.30 1117.36,1357.03 1118.53,1310.95 1122.06,1171.79 1122.21,1165.74"/>
    <poly id="12182455" type="unknown" color="51,128,255" fill="0" layer="-1.00" shape="965.69,1172.71 965.26,1180.34 957.02,1315.47"/>
    <poly id="122097037" type="unknown" color="51,128,255" fill="0" layer="-1.00" shape="1385.54,809.39 1385.60,830.61 1385.38,853.47"/>
    <poly id="122097038" type="unknown" color="51,128,255" fill="0" layer="-1.00" shape="1386.14,777.74 1387.06,763.23"/>
    <poly id="122097041" type="unknown" color="51,128,255" fill="0" layer="-1.00" shape="1385.42,867.89 1385.39,877.76 1386.22,879.87"/>
    <poly id="122317544" type="unknown" color="51,128,255" fill="0" layer="-1.00" shape="1280.28,754.00 1268.97,750.79 1236.12,741.45 1230.45,739.83"/>
    <poly id="122320050" type="unknown" color="51,128,255" fill="0" layer="-1.00" shape="1333.77,769.40 1322.73,766.08 1290.76,757.02 1280.28,754.00"/>
    <poly id="124327151" type="unknown" color="51,128,255" fill="0" layer="-1.00" shape="1273.55,873.54 1279.67,764.84 1280.28,754.00 1280.46,751.18 1280.80,745.93 1289.55,611.02 1290.18,601.33"/>
    <poly id="124327152" type="unknown" color="51,128,255" fill="0" layer="-1.00" shape="1264.67,908.63 1264.96,905.41 1265.51,899.52 1266.82,885.13 1273.55,873.54"/>
    <poly id="124327153" type="unknown" color="51,128,255" fill="0" layer="-1.00" shape="1273.55,873.54 1279.17,883.83 1279.86,894.81 1279.80,902.14 1279.77,905.31"/>
    <poly id="126471497" type="unknown" color="51,128,255" fill="0" layer="-1.00" shape="1358.39,378.86 1369.38,380.78 1381.53,382.30 1411.49,382.33 1417.74,381.71 1423.40,381.15 1436.28,381.09 1456.47,380.99 1462.86,380.97 1468.90,380.86 1555.59,380.16 1562.14,380.16 1570.11,380.38 1575.19,380.46 1615.66,381.02 1622.27,381.11 1628.81,381.25 1669.24,381.48 1679.83,381.52 1690.89,382.33 1738.71,382.24 1810.03,382.59 1813.11,382.69 1819.62,382.87 1828.15,382.93 1839.51,382.99 1847.64,383.02 1864.95,383.07 1886.16,382.60 1892.38,382.46 1901.90,382.25 2007.35,378.41 2048.74,376.93 2061.01,376.11"/>
    <poly id="126471498" type="unknown" color="51,128,255" fill="0" layer="-1.00" shape="2351.29,399.45 2355.74,401.15 2359.68,402.31 2380.87,408.38 2389.54,410.84 2396.49,412.66 2446.70,427.36 2468.15,433.97 2473.52,435.43 2478.58,436.82 2512.06,447.39 2534.25,454.95 2540.74,456.96 2548.26,459.27 2567.32,466.54 2574.48,471.16 2596.65,482.38 2611.42,491.25 2638.60,511.31 2649.03,519.35"/>
    <poly id="128724412" type="unknown" color="51,128,255" fill="0" layer="-1.00" shape="991.00,906.62 994.31,903.31 1000.14,903.97 1002.21,908.70 1000.62,912.67"/>
    <poly id="128724413" type="unknown" color="51,128,255" fill="0" layer="-1.00" shape="976.59,899.05 991.00,906.62 1000.62,912.67 1008.80,923.05"/>
    <poly id="128733977" type="unknown" color="51,128,255" fill="0" layer="-1.00" shape="1191.79,529.80 1242.60,532.15"/>
    <poly id="128734441" type="unknown" color="51,128,255" fill="0" layer="-1.00" shape="1261.69,360.78 1263.40,368.72 1263.43,395.95"/>
    <poly id="128734442" type="unknown" color="51,128,255" fill="0" layer="-1.00" shape="1263.43,395.95 1265.62,399.90 1265.64,410.08 1265.64,412.33"/>
    <poly id="128751475" type="tourism" color="207,245,201" fill="1" layer="-10.00" shape="1048.85,366.63 1044.16,397.30 1098.24,409.62 1097.74,426.02 1074.15,424.79 1046.22,423.33 1025.21,422.24 1021.34,418.19 1026.02,370.44 1026.55,365.02 1048.85,366.63"/>
    <poly id="128752303" type="unknown" color="51,128,255" fill="0" layer="-1.00" shape="1106.54,504.64 1104.73,521.03 1104.16,526.21 1098.11,526.07"/>
    <poly id="128752304" type="unknown" color="51,128,255" fill="0" layer="-1.00" shape="853.42,505.55 866.48,506.52 1003.08,510.12 1010.89,510.33"/>
    <poly id="128752305" type="unknown" color="51,128,255" fill="0" layer="-1.00" shape="1115.11,521.68 1104.73,521.03"/>
    <poly id="128752306" type="unknown" color="51,128,255" fill="0" layer="-1.00" shape="1010.03,519.64 1045.22,521.30 1072.08,514.65 1081.13,502.80"/>
    <poly id="128752307" type="unknown" color="51,128,255" fill="0" layer="-1.00" shape="947.14,668.76 946.17,678.00 920.32,914.51 919.68,920.36"/>
    <poly id="128752309" type="unknown" color="51,128,255" fill="0" layer="-1.00" shape="1081.13,502.80 1088.18,503.29 1099.25,504.05"/>
    <poly id="128752310" type="unknown" color="51,128,255" fill="0" layer="-1.00" shape="1099.25,504.05 1106.54,504.64 1110.77,509.15 1115.70,514.42 1115.11,521.68 1132.51,522.69 1163.65,524.50 1169.29,524.83 1175.76,528.68"/>
    <poly id="128752313" type="unknown" color="51,128,255" fill="0" layer="-1.00" shape="1132.51,522.69 1134.58,501.14 1111.25,499.55 1110.77,509.15"/>
    <poly id="128754991" type="unknown" color="51,128,255" fill="0" layer="-1.00" shape="1040.06,1174.82 1039.97,1168.64 1042.31,1108.50 1042.33,1106.96 1045.24,1098.31"/>
    <poly id="128754993" type="unknown" color="51,128,255" fill="0" layer="-1.00" shape="1043.87,958.08 1043.86,961.11 1043.76,1006.72 1054.73,1013.81 1062.08,1025.22 1064.75,1035.78 1063.83,1061.55 1052.30,1081.00 1045.46,1081.73"/>
    <poly id="128754995" type="unknown" color="51,128,255" fill="0" layer="-1.00" shape="1042.33,1106.96 1057.34,1106.84 1057.72,1090.63"/>
    <poly id="128754996" type="unknown" color="51,128,255" fill="0" layer="-1.00" shape="1063.83,1061.55 1063.32,1087.95 1057.72,1090.63"/>
    <poly id="128764678" type="tourism" color="207,245,201" fill="1" layer="-10.00" shape="1470.38,737.61 1470.87,730.08 1473.46,709.37 1473.92,705.70 1519.10,710.11 1518.88,715.63 1517.74,744.14 1470.38,737.61"/>
    <poly id="128764680" type="unknown" color="51,128,255" fill="0" layer="-1.00" shape="1524.50,716.78 1534.50,717.83 1539.73,718.44"/>
    <poly id="128764681" type="unknown" color="51,128,255" fill="0" layer="-1.00" shape="1417.45,700.59 1434.79,699.33"/>
    <poly id="128764682" type="unknown" color="51,128,255" fill="0" layer="-1.00" shape="1434.79,699.33 1439.33,707.61 1443.79,707.66"/>
    <poly id="128764683" type="unknown" color="51,128,255" fill="0" layer="-1.00" shape="1464.00,708.34 1467.80,708.87 1468.18,701.47 1520.57,706.12 1520.16,716.18 1524.50,716.78"/>
    <poly id="128764684" type="unknown" color="51,128,255" fill="0" layer="-1.00" shape="1443.79,707.66 1447.30,707.77 1464.00,708.34"/>
    <poly id="128764685" type="unknown" color="51,128,255" fill="0" layer="-1.00" shape="1539.73,718.44 1544.56,713.42"/>
    <poly id="128860140" type="unknown" color="51,128,255" fill="0" layer="-1.00" shape="1348.25,686.80 1350.38,686.91"/>
    <poly id="128860141" type="unknown" color="51,128,255" fill="0" layer="-1.00" shape="1338.50,686.34 1348.25,686.80"/>
    <poly id="128860142" type="unknown" color="51,128,255" fill="0" layer="-1.00" shape="1340.94,615.41 1352.41,617.12 1393.92,623.33 1426.84,620.74 1433.78,620.20"/>
    <poly id="128860143" type="unknown" color="51,128,255" fill="0" layer="-1.00" shape="1387.67,753.30 1387.06,763.23"/>
    <poly id="128860144" type="unknown" color="51,128,255" fill="0" layer="-1.00" shape="1350.38,686.91 1361.87,687.44 1389.66,693.60"/>
    <poly id="128860145" type="unknown" color="51,128,255" fill="0" layer="-1.00" shape="1387.67,753.30 1387.82,750.83"/>
    <poly id="128915816" type="unknown" color="51,128,255" fill="0" layer="-1.00" shape="768.83,1221.60 769.78,1197.21 770.03,1186.83"/>
    <poly id="128915818" type="unknown" color="51,128,255" fill="0" layer="-1.00" shape="777.73,1208.26 785.79,1208.83"/>
    <poly id="128915824" type="unknown" color="51,128,255" fill="0" layer="-1.00" shape="793.91,1155.84 792.96,1169.89 797.99,1177.91 805.83,1181.84 816.85,1181.63"/>
    <poly id="128915826" type="unknown" color="51,128,255" fill="0" layer="-1.00" shape="797.99,1177.91 795.79,1180.77 777.73,1208.26 771.81,1217.15 768.83,1221.60 765.33,1226.85 754.00,1243.82"/>
    <poly id="128920611" type="tourism" color="207,245,201" fill="1" layer="-10.00" shape="1230.13,1309.87 1274.06,1314.08 1281.16,1172.20 1244.81,1168.45 1230.13,1309.87"/>
    <poly id="128920613" type="unknown" color="51,128,255" fill="0" layer="-1.00" shape="1261.56,1165.09 1261.45,1169.45"/>
    <poly id="128920614" type="unknown" color="51,128,255" fill="0" layer="-1.00" shape="1261.45,1169.45 1261.37,1172.19 1279.12,1174.09 1276.17,1246.54 1272.51,1312.85 1271.70,1321.40"/>
    <poly id="128921396" type="unknown" color="51,128,255" fill="0" layer="-1.00" shape="1283.57,1150.14 1283.03,1167.16 1280.85,1235.89 1280.69,1240.82 1280.50,1246.85 1280.39,1250.03 1277.74,1321.88"/>
    <poly id="128922235" type="unknown" color="51,128,255" fill="0" layer="-1.00" shape="1476.11,811.72 1477.88,822.71 1479.81,831.21 1478.36,839.60 1478.23,842.40 1476.45,856.62 1476.05,859.84"/>
    <poly id="128922237" type="tourism" color="207,245,201" fill="1" layer="-10.00" shape="1460.85,851.16 1457.85,810.11 1520.00,829.25 1519.56,839.02 1460.85,851.16"/>
    <poly id="128922238" type="unknown" color="51,128,255" fill="0" layer="-1.00" shape="1478.23,842.40 1509.27,833.17 1509.14,829.83 1477.88,822.71 1471.27,825.40 1469.68,830.98 1471.60,837.68 1476.78,839.67 1478.36,839.60"/>
    <poly id="128925226" type="unknown" color="51,128,255" fill="0" layer="-1.00" shape="1265.22,432.38 1265.05,437.52"/>
    <poly id="128925227" type="unknown" color="51,128,255" fill="0" layer="-1.00" shape="1174.99,815.52 1176.78,773.76 1178.22,740.10"/>
    <poly id="128925228" type="unknown" color="51,128,255" fill="0" layer="-1.00" shape="1158.55,825.94 1222.78,829.03 1226.57,829.21"/>
    <poly id="128925229" type="unknown" color="51,128,255" fill="0" layer="-1.00" shape="1265.64,412.33 1265.22,432.38"/>
    <poly id="128925230" type="unknown" color="51,128,255" fill="0" layer="-1.00" shape="1207.89,747.45 1203.73,817.86"/>
    <poly id="128925231" type="unknown" color="51,128,255" fill="0" layer="-1.00" shape="1112.31,774.53 1104.99,784.14 1099.56,784.01 1098.39,789.60"/>
    <poly id="128925232" type="unknown" color="51,128,255" fill="0" layer="-1.00" shape="1192.95,743.98 1189.55,817.32"/>
    <poly id="128925234" type="unknown" color="51,128,255" fill="0" layer="-1.00" shape="1226.94,819.09 1216.44,818.57"/>
    <poly id="128925235" type="tourism" color="207,245,201" fill="1" layer="-10.00" shape="1096.86,926.68 1136.35,923.39 1136.49,926.30 1098.75,933.94 1096.86,926.68"/>
    <poly id="128925236" type="unknown" color="51,128,255" fill="0" layer="-1.00" shape="1203.73,817.86 1189.55,817.32"/>
    <poly id="128925237" type="unknown" color="51,128,255" fill="0" layer="-1.00" shape="1178.22,740.10 1176.81,724.31"/>
    <poly id="128925238" type="unknown" color="51,128,255" fill="0" layer="-1.00" shape="1086.70,927.06 1133.07,920.82 1142.16,924.57 1152.81,923.57"/>
    <poly id="128925239" type="unknown" color="51,128,255" fill="0" layer="-1.00" shape="1110.38,702.56 1107.42,712.09"/>
    <poly id="128925240" type="unknown" color="51,128,255" fill="0" layer="-1.00" shape="1207.89,747.45 1219.29,750.42"/>
    <poly id="128925241" type="unknown" color="51,128,255" fill="0" layer="-1.00" shape="1219.29,750.42 1217.96,782.22 1216.44,818.57"/>
    <poly id="128925242" type="unknown" color="51,128,255" fill="0" layer="-1.00" shape="1178.22,740.10 1192.95,743.98"/>
    <poly id="128925243" type="unknown" color="51,128,255" fill="0" layer="-1.00" shape="1203.73,817.86 1216.44,818.57"/>
    <poly id="128925244" type="unknown" color="51,128,255" fill="0" layer="-1.00" shape="1192.95,743.98 1207.89,747.45"/>
    <poly id="128925245" type="unknown" color="51,128,255" fill="0" layer="-1.00" shape="1106.89,720.75 1148.40,736.43"/>
    <poly id="128925247" type="unknown" color="51,128,255" fill="0" layer="-1.00" shape="1189.55,817.32 1174.99,815.52"/>
    <poly id="128925248" type="unknown" color="51,128,255" fill="0" layer="-1.00" shape="1217.96,782.22 1228.62,782.36"/>
    <poly id="128925249" type="unknown" color="51,128,255" fill="0" layer="-1.00" shape="1221.75,737.32 1207.89,747.45"/>
    <poly id="128925250" type="unknown" color="51,128,255" fill="0" layer="-1.00" shape="1107.42,712.09 1106.89,720.75 1110.80,732.07 1112.16,754.15"/>
    <poly id="128925251" type="unknown" color="51,128,255" fill="0" layer="-1.00" shape="1174.99,815.52 1159.16,815.57"/>
    <poly id="128925252" type="unknown" color="51,128,255" fill="0" layer="-1.00" shape="1176.78,773.76 1161.68,772.79"/>
    <poly id="128926549" type="unknown" color="51,128,255" fill="1" layer="-1.00" shape="1108.39,763.62 1108.68,760.09 1110.00,757.01 1112.16,754.15 1118.87,752.64 1125.70,755.30 1129.03,757.92 1130.94,762.70 1130.99,769.57 1129.28,771.39 1124.00,774.39 1117.09,775.27 1112.31,774.53 1109.45,771.76 1108.39,763.62"/>
    <poly id="128930529" type="unknown" color="51,128,255" fill="0" layer="-1.00" shape="1685.09,864.75 1667.09,851.30 1655.76,825.37 1652.13,817.07"/>
    <poly id="128930533" type="unknown" color="51,128,255" fill="0" layer="-1.00" shape="1652.13,817.07 1651.90,805.61 1655.11,790.37"/>
    <poly id="128930534" type="unknown" color="51,128,255" fill="0" layer="-1.00" shape="1655.11,790.37 1660.96,803.19 1667.29,813.82"/>
    <poly id="128930536" type="unknown" color="51,128,255" fill="0" layer="-1.00" shape="1667.29,813.82 1669.38,821.61 1683.24,855.00 1685.09,864.75"/>
    <poly id="128931497" type="tourism" color="207,245,201" fill="1" layer="-10.00" shape="1378.33,840.31 1358.12,840.84 1358.15,817.34 1378.40,820.69 1378.37,830.35 1378.33,840.31"/>
    <poly id="128931498" type="unknown" color="51,128,255" fill="0" layer="-1.00" shape="1385.60,830.61 1378.37,830.35 1369.23,829.93"/>
    <poly id="128931500" type="unknown" color="51,128,255" fill="0" layer="-1.00" shape="1108.10,194.18 1139.47,195.28 1138.70,236.87 1137.74,251.61 1139.76,280.78"/>
    <poly id="128931501" type="unknown" color="51,128,255" fill="0" layer="-1.00" shape="1101.87,173.94 1106.22,189.90 1108.10,194.18 1110.75,218.74 1122.09,251.35 1139.76,280.78 1140.23,317.88 1140.19,330.79"/>
    <poly id="128931502" type="unknown" color="51,128,255" fill="0" layer="-1.00" shape="1089.65,219.70 1072.41,224.70"/>
    <poly id="128931503" type="unknown" color="51,128,255" fill="0" layer="-1.00" shape="1108.10,194.18 1101.10,212.07 1089.65,219.70 1089.11,242.57 1076.82,250.60"/>
    <poly id="128931504" type="unknown" color="51,128,255" fill="0" layer="-1.00" shape="1015.95,427.56 1015.50,434.82 1013.97,459.90 1011.79,495.61 1010.89,510.33 1010.49,514.63 1010.03,519.64 996.02,670.63 995.33,678.66 994.68,685.77 976.59,899.05 975.22,914.36 974.56,921.79 974.20,926.38 971.02,967.68 970.48,974.63"/>
    <poly id="128931505" type="unknown" color="51,128,255" fill="0" layer="-1.00" shape="1076.82,250.60 1100.19,251.20 1122.09,251.35 1137.74,251.61"/>
    <poly id="128931506" type="unknown" color="51,128,255" fill="0" layer="-1.00" shape="1108.10,194.18 1072.26,204.73 1072.41,224.70 1072.57,244.88 1076.82,250.60"/>
    <poly id="128931507" type="unknown" color="51,128,255" fill="0" layer="-1.00" shape="1101.10,212.07 1100.19,251.20"/>
    <poly id="128932869" type="unknown" color="51,128,255" fill="0" layer="-1.00" shape="1026.13,300.50 1033.24,302.33 1140.19,330.79 1177.85,340.52 1184.73,343.27"/>
    <poly id="128942877" type="unknown" color="51,128,255" fill="0" layer="-1.00" shape="2594.48,969.44 2592.83,977.59 2588.46,1001.59 2583.90,1026.67 2573.48,1076.35 2560.41,1142.28 2555.74,1185.90 2550.45,1237.28 2549.04,1251.07 2546.15,1294.63 2538.91,1310.31 2491.92,1376.45 2476.56,1397.67 2458.66,1415.54 2440.72,1430.81 2424.05,1442.53 2401.65,1456.03 2392.74,1460.81"/>
    <poly id="128942880" type="leisure" color="207,245,201" fill="1" layer="0.00" shape="2788.18,793.61 2650.31,777.23 2647.14,776.81 2645.64,732.27 2644.90,688.72 2646.93,677.85 2651.62,668.12 2655.19,662.35 2661.94,655.27 2708.72,664.32 2722.38,666.76 2738.86,669.93 2749.02,671.93 2756.26,673.30 2766.55,675.27 2773.13,676.51 2783.92,678.57 2786.19,678.98 2799.16,681.46 2805.77,682.77 2825.04,686.32 2878.60,696.48 2885.64,697.89 2886.17,697.99 2895.02,699.68 2896.92,700.02 2900.21,700.60 2904.85,701.44 2905.61,701.61 2910.79,702.62 2908.91,708.16 2906.85,713.20 2884.41,757.01 2860.41,801.98 2858.28,806.20 2856.11,810.45 2854.37,813.93 2835.44,851.47 2781.92,843.60 2784.46,823.58 2785.38,816.31 2786.73,805.39 2788.18,793.61"/>
    <poly id="128942883" type="unknown" color="51,128,255" fill="0" layer="-1.00" shape="2607.28,929.97 2603.32,936.75 2600.62,945.25 2599.06,953.85 2594.48,969.44"/>
    <poly id="128942887" type="unknown" color="51,128,255" fill="0" layer="-1.00" shape="2089.72,954.96 2179.36,949.35 2198.80,948.59 2320.64,942.69 2339.42,942.10 2345.85,941.66 2356.16,940.76 2372.22,939.13 2378.59,938.19 2385.86,937.42 2422.72,932.71 2502.90,923.36 2589.78,912.93 2598.07,915.52 2601.64,914.79"/>
    <poly id="128943073" type="unknown" color="51,128,255" fill="0" layer="-1.00" shape="2082.50,961.85 2089.72,954.96"/>
    <poly id="129219373" type="parking" color="184,184,179" fill="1" layer="-2.00" shape="992.16,1102.21 991.30,1077.02 991.42,1071.62 1042.65,1071.15 1042.93,1081.57 1045.46,1081.73 1050.85,1082.37 1050.75,1086.53 1064.10,1086.43 1064.01,1108.26 1042.31,1108.50 1037.97,1108.55 1038.26,1102.88 992.16,1102.21"/>
    <poly id="129220646" type="unknown" color="51,128,255" fill="1" layer="-1.00" shape="1045.24,1098.31 1045.46,1081.73 994.02,1081.02 993.79,1097.60 1045.24,1098.31"/>
    <poly id="129220841" type="unknown" color="51,128,255" fill="0" layer="-1.00" shape="1161.40,777.56 1154.81,776.59 1129.28,771.39"/>
    <poly id="129220843" type="unknown" color="51,128,255" fill="0" layer="-1.00" shape="1164.74,720.82 1155.37,729.38 1148.40,736.43 1129.03,757.92"/>
    <poly id="129326001" type="amenity" color="237,199,199" fill="1" layer="2.00" shape="842.71,998.41 906.21,983.65 915.60,925.32 902.15,925.27 901.88,926.49 836.95,923.82 832.93,927.70 831.89,944.19 850.74,945.26 842.71,998.41"/>
    <poly id="129366248" type="parking" color="184,184,179" fill="1" layer="-2.00" shape="1239.49,524.60 1242.60,532.15 1242.42,533.53 1245.78,538.56 1250.12,542.76 1255.24,545.97 1260.92,548.04 1266.92,548.87 1272.95,548.43 1278.76,546.74 1284.08,543.87 1288.69,539.96 1292.36,535.16 1294.94,529.71 1296.32,523.84 1296.44,517.81 1295.28,511.89 1292.90,506.34 1289.41,501.41 1284.96,497.33 1279.75,494.26 1274.01,492.36 1267.99,491.69 1261.97,492.29 1252.68,495.57 1253.18,495.70 1250.37,497.60 1247.81,499.82 1245.51,502.33 1243.54,505.09 1241.91,508.06 1240.64,511.21 1239.76,514.48 1239.27,517.84 1239.18,521.23 1239.49,524.60"/>
    <poly id="129366250" type="unknown" color="51,128,255" fill="0" layer="-1.00" shape="1252.68,495.57 1247.28,472.55 1248.75,449.55 1245.71,443.20"/>
    <poly id="129537254" type="building" color="255,230,230" fill="1" layer="2.00" shape="1331.64,962.86 1332.11,1010.01 1321.38,1010.15 1321.18,993.55 1321.12,963.20 1317.43,963.20 1317.43,962.41 1313.75,962.42 1313.78,951.60 1307.96,951.60 1307.95,947.36 1284.37,947.64 1284.37,945.47 1290.82,939.58 1290.75,932.07 1289.77,932.07 1288.84,931.17 1288.85,929.91 1284.24,929.93 1284.11,918.71 1288.48,912.96 1298.69,910.52 1330.85,902.86 1335.46,906.55 1335.63,957.58 1331.58,957.66 1330.19,957.69 1330.23,962.86 1331.64,962.86"/>
    <poly id="129715325" type="unknown" color="51,128,255" fill="0" layer="-1.00" shape="1393.92,623.33 1389.66,693.60 1387.82,750.83"/>
    <poly id="129715327" type="unknown" color="51,128,255" fill="0" layer="-1.00" shape="1413.34,699.01 1417.45,700.59"/>
    <poly id="129839551" type="tourism" color="207,245,201" fill="1" layer="-10.00" shape="1964.12,388.02 2008.25,386.20 2047.18,384.83 2054.47,391.36 2060.31,537.03 2061.61,573.70 2010.85,576.06 1990.98,577.17 1991.25,582.99 1991.35,590.64 1991.38,594.74 1958.91,595.16 1957.27,595.11 1949.00,574.48 1947.46,489.94 2006.89,488.74 2005.83,448.10 1966.48,448.55 1966.00,436.68 1964.12,388.02"/>
    <poly id="130096026" type="unknown" color="51,128,255" fill="0" layer="-1.00" shape="567.24,1139.49 615.84,1143.38 708.01,1152.00 716.18,1152.57 726.12,1153.28 793.91,1155.84 802.84,1156.17 808.19,1156.51"/>
    <poly id="130096030" type="unknown" color="51,128,255" fill="0" layer="-1.00" shape="836.40,916.54 878.34,918.45 913.53,919.60"/>
    <poly id="130096034" type="unknown" color="51,128,255" fill="0" layer="-1.00" shape="913.53,919.60 919.68,920.36 968.18,921.62 974.56,921.79 979.86,921.98 1008.80,923.05 1086.70,927.06 1089.54,939.51 1090.44,943.44 1091.12,946.44"/>
    <poly id="130629316" type="unknown" color="51,128,255" fill="0" layer="-1.00" shape="1937.74,761.05 1940.48,775.26"/>
    <poly id="130629318" type="unknown" color="51,128,255" fill="0" layer="-1.00" shape="1940.48,775.26 1933.67,791.73 1924.90,793.99 1924.75,798.97"/>
    <poly id="130629320" type="unknown" color="51,128,255" fill="0" layer="-1.00" shape="1962.70,931.06 1962.67,925.26 1962.16,919.31 1948.69,915.84 1931.88,911.52 1927.86,865.95 1926.52,849.19 1925.02,831.67"/>
    <poly id="130629321" type="unknown" color="51,128,255" fill="0" layer="-1.00" shape="1926.52,849.19 1997.83,842.74"/>
    <poly id="130629322" type="unknown" color="51,128,255" fill="0" layer="-1.00" shape="1935.22,748.00 1937.74,761.05"/>
    <poly id="130629323" type="unknown" color="51,128,255" fill="0" layer="-1.00" shape="1944.62,864.92 1948.69,915.84"/>
    <poly id="130629324" type="tourism" color="207,245,201" fill="1" layer="-10.00" shape="1972.25,927.53 1970.40,911.03 1966.21,873.51 1969.53,869.62 1999.73,867.14 2000.15,871.12 2004.20,870.73 2009.00,926.17 1999.86,933.93 1972.25,927.53"/>
    <poly id="130629325" type="unknown" color="51,128,255" fill="0" layer="-1.00" shape="1925.02,831.67 1928.51,831.27 1996.31,825.44 1997.83,842.74 1999.63,860.92 1944.62,864.92 1927.86,865.95"/>
    <poly id="130629331" type="building" color="255,230,230" fill="1" layer="2.00" shape="1846.46,801.44 1833.42,804.96 1831.72,794.04 1849.41,790.06 1851.29,789.73 1856.84,794.24 1857.42,799.97 1858.15,807.16 1858.46,810.18 1848.31,811.55 1846.46,801.44"/>
    <poly id="130799436" type="unknown" color="51,128,255" fill="0" layer="-1.00" shape="1261.68,1160.90 1261.56,1165.09"/>
    <poly id="130801488" type="unknown" color="51,128,255" fill="0" layer="-1.00" shape="1196.03,142.73 1185.19,332.88 1184.73,343.27 1184.11,351.99 1179.84,427.76 1179.36,435.58 1179.32,440.62 1175.76,528.68 1175.35,536.47 1170.10,636.21 1169.75,642.74 1165.59,707.46 1164.94,717.65 1164.74,720.82 1164.06,732.38 1161.68,772.79 1161.40,777.56 1159.16,815.57 1158.55,825.94 1152.81,923.57 1152.42,930.23 1152.23,933.42"/>
    <poly id="131817724" type="unknown" color="51,128,255" fill="0" layer="-1.00" shape="1059.56,429.07 1046.09,428.60 1023.63,427.82 1015.95,427.56 1007.42,427.28 872.82,422.96 860.01,422.55"/>
    <poly id="132081728" type="unknown" color="51,128,255" fill="1" layer="-1.00" shape="1244.89,557.20 1245.61,543.39 1246.01,535.81 1248.57,490.10 1248.76,486.67 1344.60,492.95 1344.38,497.00 1341.66,550.05 1341.02,562.41 1244.89,557.20"/>
    <poly id="132082185" type="amenity" color="237,199,199" fill="1" layer="2.00" shape="1283.52,529.82 1264.07,528.54 1265.32,509.51 1284.78,510.79 1283.52,529.82"/>
    <poly id="132082187" type="amenity" color="237,199,199" fill="1" layer="2.00" shape="1304.64,531.38 1324.00,532.52 1325.14,513.22 1305.77,512.09 1304.64,531.38"/>
    <poly id="132755532" type="building" color="255,230,230" fill="1" layer="2.00" shape="689.56,311.59 693.22,280.27 717.63,281.58 716.40,288.51 760.62,290.28 757.38,312.67 689.56,311.59"/>
    <poly id="132755779" type="tourism" color="207,245,201" fill="1" layer="-10.00" shape="1143.08,319.21 1138.55,316.62 1138.51,292.07 1119.44,259.80 1067.69,259.61 1066.30,203.01 1106.22,189.90 1143.35,177.70 1143.08,319.21"/>
    <poly id="132761492" type="building" color="255,230,230" fill="1" layer="2.00" shape="769.02,630.14 771.91,575.96 785.54,577.86 784.00,630.47 769.02,630.14"/>
    <poly id="132761493" type="building" color="255,230,230" fill="1" layer="2.00" shape="857.80,646.13 859.94,625.79 908.61,632.75 906.79,656.83 857.80,646.13"/>
    <poly id="132967554" type="unknown" color="51,128,255" fill="0" layer="-1.00" shape="1245.86,438.42 1186.63,436.18 1179.36,435.58"/>